Version 4.1
SHEET 1 880 680
SYMBOL nmos 112 80 R0
SYMATTR InstName M1
SYMATTR Value BSC028N06LS3
