Version 4.1
SHEET 1 1412 992
WIRE -1328 -160 -1472 -160
WIRE -448 -160 -1328 -160
WIRE -448 -144 -448 -160
WIRE -1072 -64 -1136 -64
WIRE -624 -64 -992 -64
WIRE -496 -64 -544 -64
WIRE -1472 -16 -1472 -160
WIRE -1328 -16 -1328 -160
WIRE -448 0 -448 -48
WIRE -224 0 -448 0
WIRE -80 0 -224 0
WIRE 112 0 0 0
WIRE -1136 32 -1136 -64
WIRE -1136 32 -1200 32
WIRE -448 48 -448 0
WIRE -1136 128 -1136 32
WIRE -1072 128 -1136 128
WIRE -624 128 -992 128
WIRE -496 128 -544 128
WIRE -1472 192 -1472 64
WIRE -1328 192 -1328 48
WIRE -1328 192 -1472 192
WIRE -448 192 -448 144
WIRE -448 192 -1328 192
WIRE -1472 224 -1472 192
WIRE -1200 224 -1200 32
WIRE -224 224 -224 0
WIRE -224 224 -1200 224
FLAG -1472 224 0
SYMBOL nmos -496 -144 R0
SYMATTR InstName MH
SYMATTR Value BSC028N06LS3
SYMBOL nmos -496 48 R0
SYMATTR InstName ML
SYMATTR Value BSC028N06LS3
SYMBOL voltage -1472 -32 R0
WINDOW 123 0 0 Left 0
WINDOW 39 0 0 Left 0
SYMATTR InstName Battery
SYMATTR Value 25.2
SYMBOL voltage -976 128 R90
WINDOW 123 0 0 Left 0
WINDOW 39 0 0 Left 0
WINDOW 0 45 4 VRight 2
WINDOW 3 -50 47 VRight 2
SYMATTR InstName DriveLow
SYMATTR Value 0
SYMBOL voltage -976 -64 R90
WINDOW 123 0 0 Left 0
WINDOW 39 0 0 Left 0
WINDOW 0 59 -1 VRight 2
WINDOW 3 -64 -162 VRight 2
SYMATTR InstName DriveHigh
SYMATTR Value PULSE(0 15 0 100n 100n 25u 50u)
SYMBOL res -528 -80 R90
WINDOW 0 0 56 VBottom 2
WINDOW 3 32 56 VTop 2
SYMATTR InstName RgateHigh
SYMATTR Value 10
SYMBOL res -528 112 R90
WINDOW 0 0 56 VBottom 2
WINDOW 3 32 56 VTop 2
SYMATTR InstName RgateLow
SYMATTR Value 10
SYMBOL res 208 16 M270
WINDOW 0 32 56 VTop 2
WINDOW 3 0 56 VBottom 2
SYMATTR InstName Rmotor
SYMATTR Value 0.05
SYMBOL ind 16 16 M270
WINDOW 0 32 56 VTop 2
WINDOW 3 5 56 VBottom 2
SYMATTR InstName Lmotor
SYMATTR Value 20µ
SYMBOL cap -1344 -16 R0
SYMATTR InstName Clink
SYMATTR Value 470µ
SYMATTR SpiceLine Rser=0.1
TEXT 56 -64 Center 2 ;Rotor Bloqueado
TEXT -96 216 Left 2 !.tran 0 200u 0 100n
